54

C      4.134651   -0.002652    1.529428
C      3.360830   -0.296249    0.416572
C      4.026333   -0.539414   -0.766525
C      5.417718   -0.494181   -0.848904
C      6.079368   -0.738544   -2.033757
C      7.465869   -0.695265   -2.120571
C      8.231675   -0.400786   -1.001139
C      7.566394   -0.156785    0.182828
C      6.178753   -0.202063    0.261168
C      5.512951    0.041421    1.445228
H      3.615763    0.190354    2.466207
H      3.442966   -0.769965   -1.646573
H      5.494231   -0.967080   -2.904894
H      8.003219   -0.884547   -3.043492
H      9.314878   -0.359555   -1.036989
H      8.129054    0.078527    1.087481
H      6.131374    0.271158    2.314515
C     -6.680875   -1.156265   -1.918403
C     -7.237770   -0.756238   -0.735719
C     -6.442714   -0.203942    0.275352
C     -5.089508   -0.080839    0.033466
C     -4.528150   -0.488983   -1.170510
C     -5.308880   -1.024710   -2.147532
C     -3.163254   -0.350181   -1.375333
C     -2.565026   -0.742838   -2.561774
C     -1.196937   -0.591674   -2.743352
C     -0.436309   -0.052300   -1.744449
C     -1.035536    0.336791   -0.564464
C     -2.405232    0.194653   -0.362324
C     -2.940649    0.606777    0.831214
C     -2.158082    1.153339    1.824631
C     -2.726125    1.560599    3.020240
C     -4.075063    1.432626    3.248900
C     -4.871549    0.878250    2.242538
C     -4.314391    0.473161    1.055803
C     -0.812670    1.276478    1.588755
C     -0.203814    0.880582    0.406439
H     -7.307879   -1.572798   -2.670402
H     -8.295824   -0.842627   -0.522324
H     -6.940963    0.086060    1.170908
H     -4.925506   -1.354061   -3.091128
H     -3.128070   -1.165871   -3.357508
H     -0.728057   -0.899055   -3.671569
H      0.631991    0.093287   -1.845187
H     -2.072812    1.993274    3.793551
H     -4.530680    1.753893    4.195174
H     -5.916065    0.798717    2.466258
H     -0.214665    1.707370    2.380263
C      1.877252   -0.336920    0.543539
C      1.257267    1.029498    0.268158
H      1.681768   -0.647509    1.598363
H      1.469722   -1.145817   -0.075225
H      1.620348    1.362438   -0.699660
H      1.608678    1.720464    1.100356
