74

C     -0.472826   -1.151070    1.819584
C     -0.567310   -0.026032    1.044530
C     -1.833345    0.351747    0.576370
C     -2.930541   -0.403874    0.901405
C     -4.182454   -0.001179    0.418568
C     -5.296795   -0.771015    0.750090
C     -5.145518   -1.893276    1.532844
C     -3.929284   -2.304850    2.015655
C     -2.816532   -1.543750    1.689748
C     -1.565179   -1.915706    2.151521
C     -6.266361   -2.643195    1.849724
C     -7.496565   -2.257993    1.382254
C     -7.643154   -1.133544    0.598833
C     -8.905738   -0.762960    0.135731
C     -9.079327    0.350820   -0.645086
C    -10.330680    0.705851   -1.095801
C    -10.506202    1.827266   -1.882122
C     -9.387826    2.573924   -2.197230
C     -8.118127    2.252155   -1.765866
C     -7.965891    1.128228   -0.981793
C     -6.715866    0.761949   -0.523713
C     -6.529284   -0.374489    0.274604
C     -5.577195    1.477861   -0.814723
C     -4.303158    1.118816   -0.357552
H      0.528168   -1.423421    2.171936
H     -1.942560    1.224566   -0.030885
H     -3.794520   -3.190885    2.636354
H     -1.485927   -2.802174    2.763038
H     -6.119575   -3.522771    2.467836
H     -8.382733   -2.837163    1.623487
H     -9.769089   -1.370675    0.400077
H    -11.223067    0.116302   -0.848549
H    -11.505460    2.073809   -2.217094
H     -9.560748    3.449068   -2.816900
H     -7.314659    2.893780   -2.063225
H     -5.686458    2.364073   -1.431203
H     -3.524030    1.776011   -0.669700
C     10.386527   -2.873530   -0.570637
C      9.276152   -3.617932   -0.246457
C      8.018987   -3.031837   -0.101186
C      7.917861   -1.673436   -0.293025
C      6.685876   -1.058607   -0.156959
C      6.555983    0.322615   -0.346933
C      7.659533    1.082380   -0.672213
C      8.873953    0.440830   -0.800831
C      9.022925   -0.908684   -0.619367
C     10.259006   -1.512803   -0.757873
C      7.577002    2.448134   -0.868710
C      6.353306    3.044443   -0.731360
C      5.206614    2.322371   -0.403831
C      4.006472    2.990339   -0.282075
C      2.897708    2.241299    0.042448
C      1.653779    2.859856    0.179973
C      0.529674    2.129883    0.504291
C      0.595832    0.769957    0.702925
C      1.850993    0.164095    0.561342
C      2.990325    0.857031    0.239921
C      4.213281    0.210424    0.110575
C      5.342360    0.968321   -0.219152
C      4.291169   -1.137315    0.305120
C      5.540002   -1.751222    0.165812
H     11.379364   -3.326013   -0.686944
H      9.405090   -4.682953   -0.105410
H      7.220114   -3.697215    0.152258
H      9.743054    1.032925   -1.056055
H     11.085374   -0.888501   -1.010088
H      8.484199    2.975666   -1.121030
H      6.272304    4.110572   -0.881655
H      3.931654    4.065866   -0.434951
H      1.575831    3.925424    0.029204
H     -0.442461    2.597601    0.614235
H      1.881125   -0.890814    0.719369
H      3.487934   -1.799638    0.558870
H      5.616914   -2.825734    0.318096
