41

C     -2.263002   -1.770534    0.271761
C     -3.074432   -1.891762    1.357665
C     -4.416618   -2.132234    1.163809
C     -4.976256   -2.256144   -0.094858
C     -4.118516   -2.126476   -1.166757
C     -2.771335   -1.885706   -1.001785
H     -2.682227   -1.802625    2.354116
H     -5.111665   -2.237830    2.006701
H     -6.050268   -2.448296   -0.236716
H     -4.490222   -2.212176   -2.172424
H     -2.101400   -1.784994   -1.867096
C      4.833331    1.161417   -2.169750
C      5.598922    1.069142   -1.026882
C      5.017685    0.779264    0.188245
C      3.643523    0.580401    0.246031
C      3.056125    0.287807    1.471876
C      1.695607    0.091178    1.527522
C      0.940048    0.188857    0.361384
C      1.531883    0.479923   -0.852103
C      2.896264    0.677642   -0.910997
C      3.485971    0.970969   -2.139331
H      5.276509    1.391090   -3.146325
H      6.669024    1.229618   -1.104390
H      5.593549    0.701488    1.096407
H      3.662224    0.217733    2.359365
H      1.167122   -0.140076    2.445254
H      0.962368    0.560353   -1.770495
H      2.841092    1.032453   -3.008007
C     -1.429943    2.607039    0.172840
C     -2.084254    1.548237    1.032899
O     -1.132874    0.622425    1.455303
C     -0.514311   -0.019636    0.402170
C     -0.788443   -1.507865    0.389892
H     -0.324603    2.678974    0.385115
H     -1.532789    2.385667   -0.911692
H     -1.837989    3.619808    0.384415
H     -2.682158    1.942565    1.851358
H     -2.790892    0.996621    0.352623
H     -0.958224    0.390438   -0.526025
H     -0.455361   -2.016172    1.299378
H     -0.283468   -1.978580   -0.470497
